.MODEL S8050   NPN (IS=43.2f NF=1.00 BF=234 VAF=90.0
+ IKF=0.791 ISE=11.4p NE=2.00 BR=4.00 NR=1.00
+ VAR=24.0 IKR=1.50 RE=0.206 RB=0.826 RC=82.6m
+ XTB=1.5 CJE=80.6p VJE=1.10 MJE=0.500 CJC=26.0p VJC=0.300
+ MJC=0.300 TF=739p TR=125n EG=1.12 )